&NACIETEO
/
&NACOBS
/
&NACTAN
/
&NACTEX
/
&NACVEG
/
&NADOCK
/
&NAEAEM7
/
&NAEAER
/
&NAECOAPHY
/
&NAEPHLI
/
&NAEPHY
/
&NAERAD
  LRRTM=.FALSE.,
  LSRTM=.FALSE.,
  NAER=1,
  NICEOPT=3,
  NLIQOPT=3,
  NOVLP=6,
  NOZOCL=2,
  NRADFR=18,
  NRADIP=3,
  NRADLP=2,
  NSW=6,
  RLWINHF=1,
  RRE2DE=0.64952,
  RSWINHF=1,
/
&NAERCLI
/
&NAETLDIAG
/
&NAEVOL
/
&NAIMPO
/
&NALORI
/
&NAMACV
/
&NAMAFN
  GFP_CLSG%CLNAME='SURFACCGRAUPEL',
  GFP_CLSP%CLNAME='SURFACCPLUIE',
  GFP_CLSS%CLNAME='SURFACCNEIGE',
  GFP_SFIS%IBITS=16,
  GFP_ST%CLNAME='SURFTEMPERATURE',
  GFP_ST%IANO=0,
  GFP_ST%IBITS=12,
  GFP_X10U%CLNAME='CLSVENT.ZONAL',
  GFP_X10U%IANO=0,
  GFP_X10U%IBITS=12,
  GFP_X10V%CLNAME='CLSVENT.MERIDIEN',
  GFP_X10V%IANO=0,
  GFP_X10V%IBITS=12,
  GFP_X2RH%CLNAME='CLSHUMI.RELATIVE',
  GFP_X2RH%IANO=0,
  GFP_X2RH%IBITS=12,
  GFP_X2T%CLNAME='CLSTEMPERATURE',
  GFP_X2T%IANO=1,
  GFP_XCCC%IBITS=8,
  GFP_XHCC%IBITS=8,
  GFP_XLCC%IBITS=8,
  GFP_XLSG%CLNAME='SURFINSGRAUPEL',
  GFP_XLSP%CLNAME='SURFINSPLUIE',
  GFP_XLSS%CLNAME='SURFINSNEIGE',
  GFP_XMCC%IBITS=8,
  GFP_XN2T%IBITS=12,
  GFP_XTCC%IBITS=8,
  GFP_XUGST%IANO=0,
  GFP_XUGST%IBITS=12,
  GFP_XVGST%IANO=0,
  GFP_XVGST%IBITS=12,
  GFP_XX2T%IBITS=12,
  GFP_XXDIAGH%IBITS=12,
  TFP_ABS%ZFK=32.,
  TFP_CLF%IBITS=6,
  TFP_EDR%CLNAME='EDR',
  TFP_EDR%IBITS=16,
  TFP_GR%IBITS=12,
  TFP_HL%IBITS=12,
  TFP_HTB%IBITS=16,
  TFP_HTB%LLGP=.TRUE.,
  TFP_HU%IBITS=12,
  TFP_MSAT9C2%IBITS=12,
  TFP_MSAT9C6%IBITS=12,
  TFP_MSL%IBITS=12,
  TFP_MSLNH%IBITS=12,
  TFP_PV%ZFK=64.,
  TFP_RCLS%IBITS=12,
  TFP_RR%IBITS=12,
  TFP_SN%IBITS=12,
  TFP_T%IBITS=12,
  TFP_TCLS%IBITS=12,
  TFP_TH%IBITS=12,
  TFP_THPW%IBITS=12,
  TFP_THV%IBITS=12,
  TFP_TN%IBITS=12,
  TFP_TWV%IBITS=12,
  TFP_TX%IBITS=12,
  TFP_U%IBITS=12,
  TFP_V%IBITS=12,
  TFP_VOR%ZFK=32.,
  TFP_VV%ZFK=32.,
/
&NAMARG
  CNMEXP='ARPE',
  LECMWF=.FALSE.,
  LELAM=.TRUE.,
  LSLAG=.TRUE.,
  NCONF=1,
  NSUPERSEDE=1,
/
&NAMARPHY
  LKFBCONV=.FALSE.,
  LKFBD=.FALSE.,
  LKFBS=.FALSE.,
  LMFSHAL=.TRUE.,
  LMICRO=.TRUE.,
  LMPA=.TRUE.,
  LMSE=.FALSE.,
  LTURB=.TRUE.,
/
&NAMCA
/
&NAMCAPE
/
&NAMCFU
  LCUMFU=.TRUE.,
  LFPLS=.TRUE.,
  LFPLSG=.TRUE.,
  LFR=.TRUE.,
  LFRRC=.TRUE.,
  LFSF=.TRUE.,
  LNEBPAR=.TRUE.,
  LNEBTT=.TRUE.,
  LRAYD=.TRUE.,
  LRAYS=.TRUE.,
/
&NAMCHEM
/
&NAMCHET
/
&NAMCHK
/
&NAMCLA
/
&NAMCLDP
/
&NAMCLI
/
&NAMCLOP15
/
&NAMCLTC
/
&NAMCOK
/
&NAMCOM
/
&NAMCOSJO
/
&NAMCOUPLO4
/
&NAMCT0
  CFPNCF='ECHFP',
  CNPPATH='.',
  CSCRIPT_LAMRTC='./atcp.alad',
  LAROME=.TRUE.,
  LGRIB_API=.FALSE.,
  LNHEE=.FALSE.,
  LSCREEN_OPENMP=.FALSE.,
  LSFORC=.TRUE.,
  LSFORCS=.TRUE.,
  LSPRT=.TRUE.,
  LTWOTL=.TRUE.,
  NFPOS=0,
  NFRHIS=1,
  NFRPOS=1,
  NFRSDI=10000,
  NHISTS(0)=-49,
  NHISTS(1)=0,
  NHISTS(10)=-9,
  NHISTS(11)=-10,
  NHISTS(12)=-11,
  NHISTS(13)=-12,
  NHISTS(14)=-13,
  NHISTS(15)=-14,
  NHISTS(16)=-15,
  NHISTS(17)=-16,
  NHISTS(18)=-17,
  NHISTS(19)=-18,
  NHISTS(2)=-1,
  NHISTS(20)=-19,
  NHISTS(21)=-20,
  NHISTS(22)=-21,
  NHISTS(23)=-22,
  NHISTS(24)=-23,
  NHISTS(25)=-24,
  NHISTS(26)=-25,
  NHISTS(27)=-26,
  NHISTS(28)=-27,
  NHISTS(29)=-28,
  NHISTS(3)=-2,
  NHISTS(30)=-29,
  NHISTS(31)=-30,
  NHISTS(32)=-31,
  NHISTS(33)=-32,
  NHISTS(34)=-33,
  NHISTS(35)=-34,
  NHISTS(36)=-35,
  NHISTS(37)=-36,
  NHISTS(38)=-37,
  NHISTS(39)=-38,
  NHISTS(4)=-3,
  NHISTS(40)=-39,
  NHISTS(41)=-40,
  NHISTS(42)=-41,
  NHISTS(43)=-42,
  NHISTS(44)=-43,
  NHISTS(45)=-44,
  NHISTS(46)=-45,
  NHISTS(47)=-46,
  NHISTS(48)=-47,
  NHISTS(49)=-48,
  NHISTS(5)=-4,
  NHISTS(6)=-5,
  NHISTS(7)=-6,
  NHISTS(8)=-7,
  NHISTS(9)=-8,
  NPOSTS(0)=-49,
  NPOSTS(1)=0,
  NPOSTS(10)=-9,
  NPOSTS(11)=-10,
  NPOSTS(12)=-11,
  NPOSTS(13)=-12,
  NPOSTS(14)=-13,
  NPOSTS(15)=-14,
  NPOSTS(16)=-15,
  NPOSTS(17)=-16,
  NPOSTS(18)=-17,
  NPOSTS(19)=-18,
  NPOSTS(2)=-1,
  NPOSTS(20)=-19,
  NPOSTS(21)=-20,
  NPOSTS(22)=-21,
  NPOSTS(23)=-22,
  NPOSTS(24)=-23,
  NPOSTS(25)=-24,
  NPOSTS(26)=-25,
  NPOSTS(27)=-26,
  NPOSTS(28)=-27,
  NPOSTS(29)=-28,
  NPOSTS(3)=-2,
  NPOSTS(30)=-29,
  NPOSTS(31)=-30,
  NPOSTS(32)=-31,
  NPOSTS(33)=-32,
  NPOSTS(34)=-33,
  NPOSTS(35)=-34,
  NPOSTS(36)=-35,
  NPOSTS(37)=-36,
  NPOSTS(38)=-37,
  NPOSTS(39)=-38,
  NPOSTS(4)=-3,
  NPOSTS(40)=-39,
  NPOSTS(41)=-40,
  NPOSTS(42)=-41,
  NPOSTS(43)=-42,
  NPOSTS(44)=-43,
  NPOSTS(45)=-44,
  NPOSTS(46)=-45,
  NPOSTS(47)=-46,
  NPOSTS(48)=-47,
  NPOSTS(49)=-48,
  NPOSTS(5)=-4,
  NPOSTS(6)=-5,
  NPOSTS(7)=-6,
  NPOSTS(8)=-7,
  NPOSTS(9)=-8,
  NSFXHISTS(0)=-3,
  NSFXHISTS(1)=-1,
  NSFXHISTS(2)=-2,
  NSFXHISTS(3)=-3,
/
&NAMCT1
  LRFILAF=.FALSE.,
  N1POS=0,
  N1RES=0,
  N1SFXHIS=0,
/
&NAMCUMF
/
&NAMCUMFS
/
&NAMCVER
/
&NAMCVMNH
/
&NAMDDH
  LHDDOP=.FALSE.,
  LHDEFD=.FALSE.,
  LHDEFZ=.FALSE.,
  LHDHKS=.FALSE.,
  LHDZON=.FALSE.,
/
&NAMDFI
/
&NAMDIM
  NPROMA=-16,
/
&NAMDIMO
/
&NAMDIM_TRAJ
/
&NAMDPHY
/
&NAMDPRECIPS
/
&NAMDVISI
  HVISI=5.,
/
&NAMDYN
  LADVF=.FALSE.,
  LIMPF=.FALSE.,
  LQMPD=.FALSE.,
  LQMT=.FALSE.,
  LQMVD=.FALSE.,
  LRHDI_LASTITERPC=.TRUE.,
  NCOMP_CVGQ=2,
  NITMP=4,
  NSITER=0,
  NSPDLAG=3,
  NSVDLAG=3,
  NTLAG=3,
  NVLAG=3,
  NWLAG=3,
  RDAMPDIV=20.,
  RDAMPPD=20.,
  RDAMPQ=0.,
  RDAMPT=0.,
  RDAMPVD=20.,
  RDAMPVOR=20.,
  REPS1=0.,
  REPS2=0.,
  REPSM1=0.,
  REPSM2=0.,
  REPSP1=0.,
  SDRED=1.,
  SIPR=90000.,
  SITR=350.,
  SITRA=100.,
  SLHDA0=0.25,
  SLHDD00=0.000065,
  VESL=0.05,
  XIDT=0.,
  ZSLHDP1=1.7,
  ZSLHDP3=0.6,
/
&NAMDYNA
/
&NAMDYNCORE
/
&NAMEMIS_CONF
/
&NAMENKF
/
&NAMENSCOV
/
&NAMFA
  CMODEL='OUTPUTID',
  LEXTERN=.TRUE.,
  LSUPPDATE=.FALSE.,
  NBITCS=-1,
  NBITPG=-1,
  NSTRON=-1,
  YFA_MXCLWC%CLNAME='CLD_WX_60M',
  YFA_VISICLD%CLNAME='CLSVISIN_60',
  YFA_VISIHYD%CLNAME='CLSVISIHYDN60',
  YFA_XPTYPE%CLNAME='CLSPTYPE_60M',
  YFA_XPTYPESEV%CLNAME='CLSPTYPESEV_60M',
  YFA_XUGST%CLNAME='CLSU.RAF60M.XFU',
  YFA_XVGST%CLNAME='CLSV.RAF60M.XFU',
/
&NAMFPC
/
&NAMFPD
/
&NAMFPDY2
/
&NAMFPDYF
/
&NAMFPDYH
/
&NAMFPDYI
/
&NAMFPDYP
/
&NAMFPDYS
/
&NAMFPDYT
/
&NAMFPDYV
/
&NAMFPF
  NFMAX(1)=60,
  NFMAX(2)=80,
/
&NAMFPG
  NFPDISTRIB=1,
/
&NAMFPIOS
/
&NAMFPMOVE
/
&NAMFPOBJ
/
&NAMFPPHY
/
&NAMFPSC2
  NFPROMA=50,
/
&NAMFPSC2_DEP
/
&NAMGEM
/
&NAMGFL
  NGFL_EZDIAG=4,
  NGFL_FORC=120,
  YCVGQ_NL%LCDERS=.TRUE.,
  YCVGQ_NL%LGP=.TRUE.,
  YCVGQ_NL%LSP=.FALSE.,
  YEZDIAG_NL(1)%CNAME='EZDIAG01',
  YEZDIAG_NL(1)%LREQOUT=.FALSE.,
  YEZDIAG_NL(2)%CNAME='EZDIAG02',
  YEZDIAG_NL(2)%LREQOUT=.FALSE.,
  YEZDIAG_NL(3)%CNAME='EZDIAG03',
  YEZDIAG_NL(3)%LREQOUT=.FALSE.,
  YEZDIAG_NL(4)%CNAME='EZDIAG04',
  YEZDIAG_NL(4)%LREQOUT=.TRUE.,
  YG_NL%LADV=.TRUE.,
  YG_NL%LGP=.TRUE.,
  YG_NL%LGPINGP=.TRUE.,
  YG_NL%LPHY=.FALSE.,
  YG_NL%LQM=.TRUE.,
  YG_NL%LREQOUT=.TRUE.,
  YG_NL%LSLHD=.FALSE.,
  YG_NL%LT1=.TRUE.,
  YG_NL%NCOUPLING=0,
  YG_NL%NREQIN=0,
  YG_NL%REFVALC=0.,
  YIRAD_NL%LGP=.TRUE.,
  YI_NL%LADV=.TRUE.,
  YI_NL%LGP=.TRUE.,
  YI_NL%LGPINGP=.TRUE.,
  YI_NL%LPHY=.FALSE.,
  YI_NL%LQM=.TRUE.,
  YI_NL%LREQOUT=.TRUE.,
  YI_NL%LSLHD=.FALSE.,
  YI_NL%LT1=.TRUE.,
  YI_NL%NCOUPLING=0,
  YI_NL%NREQIN=1,
  YI_NL%REFVALC=0.,
  YLRAD_NL%LGP=.TRUE.,
  YL_NL%LADV=.TRUE.,
  YL_NL%LGP=.TRUE.,
  YL_NL%LGPINGP=.TRUE.,
  YL_NL%LPHY=.FALSE.,
  YL_NL%LQM=.TRUE.,
  YL_NL%LREQOUT=.TRUE.,
  YL_NL%LSLHD=.FALSE.,
  YL_NL%LT1=.TRUE.,
  YL_NL%NCOUPLING=0,
  YL_NL%NREQIN=1,
  YL_NL%REFVALC=0.,
  YQ_NL%LCOMAD=.FALSE.,
  YQ_NL%LGP=.TRUE.,
  YQ_NL%LQM=.FALSE.,
  YQ_NL%LSLHD=.FALSE.,
  YQ_NL%LSP=.FALSE.,
  YQ_NL%NCOUPLING=0,
  YQ_NL%NREQIN=1,
  YR_NL%LADV=.TRUE.,
  YR_NL%LGP=.TRUE.,
  YR_NL%LGPINGP=.TRUE.,
  YR_NL%LPHY=.FALSE.,
  YR_NL%LQM=.TRUE.,
  YR_NL%LREQOUT=.TRUE.,
  YR_NL%LSLHD=.FALSE.,
  YR_NL%LT1=.TRUE.,
  YR_NL%NCOUPLING=0,
  YR_NL%NREQIN=0,
  YR_NL%REFVALC=0.,
  YS_NL%LADV=.TRUE.,
  YS_NL%LGP=.TRUE.,
  YS_NL%LGPINGP=.TRUE.,
  YS_NL%LPHY=.FALSE.,
  YS_NL%LQM=.TRUE.,
  YS_NL%LREQOUT=.TRUE.,
  YS_NL%LSLHD=.FALSE.,
  YS_NL%LT1=.TRUE.,
  YS_NL%NCOUPLING=0,
  YS_NL%NREQIN=0,
  YS_NL%REFVALC=0.,
  YTKE_NL%LADV=.TRUE.,
  YTKE_NL%LGP=.TRUE.,
  YTKE_NL%LGPINGP=.TRUE.,
  YTKE_NL%LPHY=.FALSE.,
  YTKE_NL%LQM=.TRUE.,
  YTKE_NL%LREQOUT=.TRUE.,
  YTKE_NL%LT1=.TRUE.,
  YTKE_NL%NCOUPLING=0,
  YTKE_NL%NREQIN=1,
/
&NAMGRIB
/
&NAMGWD
/
&NAMGWDIAG
/
&NAMGWWMS
/
&NAMIAU
/
&NAMICE
/
&NAMINI
  LDFI=.FALSE.,
/
&NAMINTFLEX
/
&NAMIOMI
/
&NAMIOS
/
&NAMIO_SERV
  NIO_SERV_BUF_MAXSIZE=20,
  NIO_SERV_METHOD=2,
  NMSG_LEVEL_CLIENT=0,
  NMSG_LEVEL_SERVER=0,
  NPROCESS_LEVEL=5,
  NPROC_IO=0,
/
&NAMJBCODES
/
&NAMJG
/
&NAMLCZ
/
&NAMLIMA
/
&NAMLSFORC
  LGEOST_UV_FRC=.TRUE.,
  LMUSCLFA=.TRUE.,
  LQV_ADV_FRC=.TRUE.,
  LQV_NUDG=.FALSE.,
  LSOMEGA_FRC=.FALSE.,
  LSW_FRC=.FALSE.,
  LT_ADV_FRC=.TRUE.,
  LT_NUDG=.FALSE.,
  LUV_ADV_FRC=.FALSE.,
  LUV_NUDG=.FALSE.,
  NGEOST_U_DEB=61,
  NGEOST_U_NUM=30,
  NGEOST_V_DEB=91,
  NGEOST_V_NUM=30,
  NLH_FORC_DEB=31,
  NLH_FORC_NUM=30,
  NL_GEOST_UV_TIME(   1 )=0,
  NL_GEOST_UV_TIME(   10 )=16200,
  NL_GEOST_UV_TIME(   11 )=18000,
  NL_GEOST_UV_TIME(   12 )=19800,
  NL_GEOST_UV_TIME(   13 )=21600,
  NL_GEOST_UV_TIME(   14 )=23400,
  NL_GEOST_UV_TIME(   15 )=25200,
  NL_GEOST_UV_TIME(   16 )=27000,
  NL_GEOST_UV_TIME(   17 )=28800,
  NL_GEOST_UV_TIME(   18 )=30600,
  NL_GEOST_UV_TIME(   19 )=32400,
  NL_GEOST_UV_TIME(   2 )=1800,
  NL_GEOST_UV_TIME(   20 )=34200,
  NL_GEOST_UV_TIME(   21 )=36000,
  NL_GEOST_UV_TIME(   22 )=37800,
  NL_GEOST_UV_TIME(   23 )=39600,
  NL_GEOST_UV_TIME(   24 )=41400,
  NL_GEOST_UV_TIME(   25 )=43200,
  NL_GEOST_UV_TIME(   26 )=45000,
  NL_GEOST_UV_TIME(   27 )=46800,
  NL_GEOST_UV_TIME(   28 )=48600,
  NL_GEOST_UV_TIME(   29 )=50400,
  NL_GEOST_UV_TIME(   3 )=3600,
  NL_GEOST_UV_TIME(   30 )=52200,
  NL_GEOST_UV_TIME(   4 )=5400,
  NL_GEOST_UV_TIME(   5 )=7200,
  NL_GEOST_UV_TIME(   6 )=9000,
  NL_GEOST_UV_TIME(   7 )=10800,
  NL_GEOST_UV_TIME(   8 )=12600,
  NL_GEOST_UV_TIME(   9 )=14400,
  NL_LH_ADV_TIME(   1 )=0,
  NL_LH_ADV_TIME(   10 )=16200,
  NL_LH_ADV_TIME(   11 )=18000,
  NL_LH_ADV_TIME(   12 )=19800,
  NL_LH_ADV_TIME(   13 )=21600,
  NL_LH_ADV_TIME(   14 )=23400,
  NL_LH_ADV_TIME(   15 )=25200,
  NL_LH_ADV_TIME(   16 )=27000,
  NL_LH_ADV_TIME(   17 )=28800,
  NL_LH_ADV_TIME(   18 )=30600,
  NL_LH_ADV_TIME(   19 )=32400,
  NL_LH_ADV_TIME(   2 )=1800,
  NL_LH_ADV_TIME(   20 )=34200,
  NL_LH_ADV_TIME(   21 )=36000,
  NL_LH_ADV_TIME(   22 )=37800,
  NL_LH_ADV_TIME(   23 )=39600,
  NL_LH_ADV_TIME(   24 )=41400,
  NL_LH_ADV_TIME(   25 )=43200,
  NL_LH_ADV_TIME(   26 )=45000,
  NL_LH_ADV_TIME(   27 )=46800,
  NL_LH_ADV_TIME(   28 )=48600,
  NL_LH_ADV_TIME(   29 )=50400,
  NL_LH_ADV_TIME(   3 )=3600,
  NL_LH_ADV_TIME(   30 )=52200,
  NL_LH_ADV_TIME(   4 )=5400,
  NL_LH_ADV_TIME(   5 )=7200,
  NL_LH_ADV_TIME(   6 )=9000,
  NL_LH_ADV_TIME(   7 )=10800,
  NL_LH_ADV_TIME(   8 )=12600,
  NL_LH_ADV_TIME(   9 )=14400,
  NL_QV_ADV_TIME(   1 )=0,
  NL_QV_ADV_TIME(   10 )=16200,
  NL_QV_ADV_TIME(   11 )=18000,
  NL_QV_ADV_TIME(   12 )=19800,
  NL_QV_ADV_TIME(   13 )=21600,
  NL_QV_ADV_TIME(   14 )=23400,
  NL_QV_ADV_TIME(   15 )=25200,
  NL_QV_ADV_TIME(   16 )=27000,
  NL_QV_ADV_TIME(   17 )=28800,
  NL_QV_ADV_TIME(   18 )=30600,
  NL_QV_ADV_TIME(   19 )=32400,
  NL_QV_ADV_TIME(   2 )=1800,
  NL_QV_ADV_TIME(   20 )=34200,
  NL_QV_ADV_TIME(   21 )=36000,
  NL_QV_ADV_TIME(   22 )=37800,
  NL_QV_ADV_TIME(   23 )=39600,
  NL_QV_ADV_TIME(   24 )=41400,
  NL_QV_ADV_TIME(   25 )=43200,
  NL_QV_ADV_TIME(   26 )=45000,
  NL_QV_ADV_TIME(   27 )=46800,
  NL_QV_ADV_TIME(   28 )=48600,
  NL_QV_ADV_TIME(   29 )=50400,
  NL_QV_ADV_TIME(   3 )=3600,
  NL_QV_ADV_TIME(   30 )=52200,
  NL_QV_ADV_TIME(   4 )=5400,
  NL_QV_ADV_TIME(   5 )=7200,
  NL_QV_ADV_TIME(   6 )=9000,
  NL_QV_ADV_TIME(   7 )=10800,
  NL_QV_ADV_TIME(   8 )=12600,
  NL_QV_ADV_TIME(   9 )=14400,
  NL_SH_ADV_TIME(   1 )=0,
  NL_SH_ADV_TIME(   10 )=16200,
  NL_SH_ADV_TIME(   11 )=18000,
  NL_SH_ADV_TIME(   12 )=19800,
  NL_SH_ADV_TIME(   13 )=21600,
  NL_SH_ADV_TIME(   14 )=23400,
  NL_SH_ADV_TIME(   15 )=25200,
  NL_SH_ADV_TIME(   16 )=27000,
  NL_SH_ADV_TIME(   17 )=28800,
  NL_SH_ADV_TIME(   18 )=30600,
  NL_SH_ADV_TIME(   19 )=32400,
  NL_SH_ADV_TIME(   2 )=1800,
  NL_SH_ADV_TIME(   20 )=34200,
  NL_SH_ADV_TIME(   21 )=36000,
  NL_SH_ADV_TIME(   22 )=37800,
  NL_SH_ADV_TIME(   23 )=39600,
  NL_SH_ADV_TIME(   24 )=41400,
  NL_SH_ADV_TIME(   25 )=43200,
  NL_SH_ADV_TIME(   26 )=45000,
  NL_SH_ADV_TIME(   27 )=46800,
  NL_SH_ADV_TIME(   28 )=48600,
  NL_SH_ADV_TIME(   29 )=50400,
  NL_SH_ADV_TIME(   3 )=3600,
  NL_SH_ADV_TIME(   30 )=52200,
  NL_SH_ADV_TIME(   4 )=5400,
  NL_SH_ADV_TIME(   5 )=7200,
  NL_SH_ADV_TIME(   6 )=9000,
  NL_SH_ADV_TIME(   7 )=10800,
  NL_SH_ADV_TIME(   8 )=12600,
  NL_SH_ADV_TIME(   9 )=14400,
  NL_T_ADV_TIME(   1 )=0,
  NL_T_ADV_TIME(   10 )=16200,
  NL_T_ADV_TIME(   11 )=18000,
  NL_T_ADV_TIME(   12 )=19800,
  NL_T_ADV_TIME(   13 )=21600,
  NL_T_ADV_TIME(   14 )=23400,
  NL_T_ADV_TIME(   15 )=25200,
  NL_T_ADV_TIME(   16 )=27000,
  NL_T_ADV_TIME(   17 )=28800,
  NL_T_ADV_TIME(   18 )=30600,
  NL_T_ADV_TIME(   19 )=32400,
  NL_T_ADV_TIME(   2 )=1800,
  NL_T_ADV_TIME(   20 )=34200,
  NL_T_ADV_TIME(   21 )=36000,
  NL_T_ADV_TIME(   22 )=37800,
  NL_T_ADV_TIME(   23 )=39600,
  NL_T_ADV_TIME(   24 )=41400,
  NL_T_ADV_TIME(   25 )=43200,
  NL_T_ADV_TIME(   26 )=45000,
  NL_T_ADV_TIME(   27 )=46800,
  NL_T_ADV_TIME(   28 )=48600,
  NL_T_ADV_TIME(   29 )=50400,
  NL_T_ADV_TIME(   3 )=3600,
  NL_T_ADV_TIME(   30 )=52200,
  NL_T_ADV_TIME(   4 )=5400,
  NL_T_ADV_TIME(   5 )=7200,
  NL_T_ADV_TIME(   6 )=9000,
  NL_T_ADV_TIME(   7 )=10800,
  NL_T_ADV_TIME(   8 )=12600,
  NL_T_ADV_TIME(   9 )=14400,
  NQV_ADV_DEB=31,
  NQV_ADV_NUM=30,
  NSH_FORC_DEB=1,
  NSH_FORC_NUM=30,
  NT_ADV_DEB=1,
  NT_ADV_NUM=30,
  RCORIO_FORC=8.57237767648e-05,
  RZ0_FORC=0.035,
/
&NAMMARS
/
&NAMMCC
/
&NAMMCUF
/
&NAMMETHOX
/
&NAMMKODB
/
&NAMMODERR
/
&NAMMTS
/
&NAMMWAVE
/
&NAMNORGWD
/
&NAMNPROF
/
&NAMNUD
/
&NAMOBS
/
&NAMONEDVAR
/
&NAMOOPS
/
&NAMOPH
  CFNHWF='ECHIS',
  LINC=.TRUE.,
  NTIMEFMT=1,
/
&NAMOPTCMEM
/
&NAMPAR0
  LMPOFF=.TRUE.,
  MBX_SIZE=2048000000,
  MP_TYPE=2,
  NOUTPUT=1,
  NPRGPEW=1,
  NPRGPNS=1,
  NPROC=1,
  NPRTRV=1,
  NPRTRW=1,
/
&NAMPAR1
  LEQ_REGIONS=.FALSE.,
  LSLONDEM=.TRUE.,
  LSPLIT=.TRUE.,
  LSYNC_SLCOM=.FALSE.,
  LSYNC_TRANS=.FALSE.,
  L_GATHERV_WRGP=.FALSE.,
  NCOMBFLEN=1800000,
  NSTRIN=1,
  NSTROUT=1,
/
&NAMPARAR
  CFRAC_ICE_ADJUST='S',
  CFRAC_ICE_SHALLOW_MF='S',
  CMICRO='ICE3',
  CSEDIM='STAT',
  CSNOWRIMING='M90',
  LCONVHG=.TRUE.,
  LCRFLIMIT=.TRUE.,
  LCRIAUTI=.TRUE.,
  LEVLIMIT=.TRUE.,
  LFEEDBACKT=.TRUE.,
  LFPREC3D=.TRUE.,
  LNULLWETG=.TRUE.,
  LNULLWETH=.TRUE.,
  LOLSMC=.TRUE.,
  LOSEDIC=.TRUE.,
  LOSIGMAS=.TRUE.,
  LOSUBG_COND=.TRUE.,
  LSEDIM_AFTER=.FALSE.,
  LWETGPOST=.TRUE.,
  LWETHPOST=.TRUE.,
  NMAXITER_MICRO=1,
  NPRINTFR=10000,
  NPTP=1,
  RCRIAUTC=0.001,
  RCRIAUTI=0.0002,
  RT0CRIAUTI=-5.,
  VSIGQSAT=0.02,
  XFRACM90=0.1,
  XMRSTEP=0.00005,
  XSPLIT_MAXCFL=0.8,
  XTSTEP_TS=0.,
/
&NAMPHMSE
  LPGDFWR=.FALSE.,
/
&NAMPHY
  LAERODES=.TRUE.,
  LAEROLAN=.TRUE.,
  LAEROSEA=.TRUE.,
  LAEROSOO=.TRUE.,
  LDPRECIPS=.TRUE.,
  LEDR=.FALSE.,
  LMPHYS=.TRUE.,
  LO3ABC=.TRUE.,
  LRAYFM=.FALSE.,
/
&NAMPHY0
  ALMAV=300.,
  BEDIFV=0.05,
  ECMNP=3000.,
  GCCSV=0.,
  GCVADS=0.8,
  GCVALFA=0.000045,
  GCVBETA=0.2,
  GCVMLT=0.00016,
  GCVNU=0.000025,
  GCVPSI=1.,
  GCVPSIE=1.,
  GDDEVA=0.25,
  GDDSDE=0.5,
  GWDCD=6.,
  HUCOE=0.5,
  HUTIL=1.8,
  QSSC=400.,
  QSSUSC=0.75,
  QSSUSS=0.4,
  QSSUSV=250.,
  QSUSXC=0.0002,
  QSUSXS=0.0003,
  QXRAL=130.,
  QXRDEL=0.49,
  QXRHX=0.99,
  QXRR=0.25,
  RCVEVAP=0.25,
  REFLKUO=5000.,
  REVGSL=15.,
  SCO=-20.,
  TDDGP=0.8,
  TENTR=0.0000025,
  TENTRX=0.00008,
  TUDGP=0.8,
  UHDIFV=0.0008,
  USURIC=0.175,
  USURICE=0.5,
  USURICL=1.,
  USURID=0.1,
  USURIDE=0.25,
  VZ0CM=0.00015,
  XMAXLM=5000.,
  XMINLM=10.,
/
&NAMPHY1
  ALBMIN=0.65,
  ALCRIN=0.75,
  GCGEL=0.00003,
  GCGELS=0.00005,
  GNEIMX=1.8,
  GNEIMXS=1.8,
  RCTVEG(3)=0.000012,
  RCTVEG(4)=0.00001,
/
&NAMPHY2
  FACRAF=3.8,
  HTKERAF=20.,
  LMULAF=.TRUE.,
  LRAFTKE=.TRUE.,
  LRAFTUR=.TRUE.,
  XDAMP=1.,
  XMULAF=-1.85,
/
&NAMPHY3
/
&NAMPHYDS
  NSFORC=60,
/
&NAMPONG
/
&NAMPPC
/
&NAMPPVI
/
&NAMPRE
/
&NAMRAD15
/
&NAMRADCMEM
/
&NAMRCF
/
&NAMRCOEF
/
&NAMRES
/
&NAMRGRI
/
&NAMRINC
/
&NAMRIP
  CSTOP='h14',
  TSTEP=50,
/
&NAMRIP0
/
&NAMRLX
/
&NAMSATS
  LPARTIAL_COEF_FILES=.TRUE.,
/
&NAMSCC
/
&NAMSCEN
/
&NAMSCM
/
&NAMSEKF
/
&NAMSENS
/
&NAMSFXCMP
  CFLDNAME(1)='????????????????',
  NBBITS(1)=24,
/
&NAMSIMPHL
/
&NAMSPNG
/
&NAMSPP
/
&NAMSPSDT
/
&NAMSTA
/
&NAMSTOPH
/
&NAMSWE
/
&NAMTESTVAR
/
&NAMTHLIM
/
&NAMTOPH
  ETCVIM=5000.,
  ETNEBU=5000.,
  ETPLUI=5000.,
  XDRMTK=6.0D-7,
  XDRMTP=800.,
  XDRMUK=3.0D-7,
  XDRMUP=800.,
/
&NAMTRAJP
/
&NAMTRANS
  LFFTW=.TRUE.,
/
&NAMTRANS0
/
&NAMVAR
/
&NAMVARBC
/
&NAMVARBC_AIREP
/
&NAMVARBC_ALLSKY
/
&NAMVARBC_GBRAD
/
&NAMVARBC_RAD
/
&NAMVARBC_SFCOBS
/
&NAMVARBC_TCWV
/
&NAMVARBC_TO3
/
&NAMVAREPS
/
&NAMVDF
/
&NAMVDOZ
/
&NAMVOLCANO
/
&NAMVRTL
/
&NAMVV0
/
&NAMVV1
/
&NAMVWRK
/
&NAMWAVELETJB
/
&NAMXFU
  LXCLP=.FALSE.,
  LXCLS=.FALSE.,
  LXFU=.FALSE.,
  LXNEBPA=.FALSE.,
  LXNEBTT=.FALSE.,
  LXNUVCLS=.FALSE.,
  LXPLS=.FALSE.,
  LXPLSG=.FALSE.,
  LXQCLS=.FALSE.,
  LXR=.FALSE.,
  LXSOIL=.FALSE.,
  LXTHW=.FALSE.,
  LXTRT=.FALSE.,
  LXTTCLS=.FALSE.,
  LXVISI=.FALSE.,
  LXXDIAGH=.FALSE.,
  LXXGST=.FALSE.,
  NRAZTS(0)=-49,
  NRAZTS(1)=0,
  NRAZTS(10)=-9,
  NRAZTS(11)=-10,
  NRAZTS(12)=-11,
  NRAZTS(13)=-12,
  NRAZTS(14)=-13,
  NRAZTS(15)=-14,
  NRAZTS(16)=-15,
  NRAZTS(17)=-16,
  NRAZTS(18)=-17,
  NRAZTS(19)=-18,
  NRAZTS(2)=-1,
  NRAZTS(20)=-19,
  NRAZTS(21)=-20,
  NRAZTS(22)=-21,
  NRAZTS(23)=-22,
  NRAZTS(24)=-23,
  NRAZTS(25)=-24,
  NRAZTS(26)=-25,
  NRAZTS(27)=-26,
  NRAZTS(28)=-27,
  NRAZTS(29)=-28,
  NRAZTS(3)=-2,
  NRAZTS(30)=-29,
  NRAZTS(31)=-30,
  NRAZTS(32)=-31,
  NRAZTS(33)=-32,
  NRAZTS(34)=-33,
  NRAZTS(35)=-34,
  NRAZTS(36)=-35,
  NRAZTS(37)=-36,
  NRAZTS(38)=-37,
  NRAZTS(39)=-38,
  NRAZTS(4)=-3,
  NRAZTS(40)=-39,
  NRAZTS(41)=-40,
  NRAZTS(42)=-41,
  NRAZTS(43)=-42,
  NRAZTS(44)=-43,
  NRAZTS(45)=-44,
  NRAZTS(46)=-45,
  NRAZTS(47)=-46,
  NRAZTS(48)=-47,
  NRAZTS(49)=-48,
  NRAZTS(5)=-4,
  NRAZTS(6)=-5,
  NRAZTS(7)=-6,
  NRAZTS(8)=-7,
  NRAZTS(9)=-8,
/
&NAM_CANAPE
/
&NAM_DISTRIBUTED_VECTORS
/
&NAPHLC
/
&NEMCT0
/
&NEMDIM
/
&NEMDYN
/
&NEMELBC0A
  LESPCPL=FALSE,
  NBICNHX=2,
  NBICOP=2,
  NBICOT=2,
  NBICOU=2,
  NBICPD=2,
  NBICVD=2,
  NECRIPL=1,
/
&NEMELBC0B
  NEFRSPCPL=1,
  NEK0=20,
  NEK1=30,
  NEN1=4,
  NEN2=8,
  SPNUDDIV=0.01,
  SPNUDQ=0.,
  SPNUDT=0.01,
  SPNUDVOR=0.01,
  TEFRCL=3600.,
/
&NEMFPEZO
/
&NEMGEO
  RLAT_ACAD=36.0,
  RLON_ACAD=-97.5,
/
&NEMJK
/
&NEMVAR
/
&NEMWAVELET
/
&NAMTRAJ
/
&NAMSATSIM
/
&NAMNUDGLH
/
