 &NAM_DIAG_ISBAN
   LPGD=.TRUE.,
   LSURF_MISC_BUDGET=.TRUE.,
 /
 &NAM_DIAG_SURFN
   LCOEF=.TRUE.,
   LSURF_BUDGET=.TRUE.,
   N2M=2,
 /
 &NAM_ISBAN
   CROUGH='NONE',
   CSCOND='NP89',
 /
 &NAM_REPROD_OPER
  LREPROD_OPER=.TRUE.,
 /
 &NAM_SEAFLUXN
   CSEA_FLUX='ECUME',
   LPWG=.FALSE.,
   LPRECIP=.FALSE.,
   LPWEBB=.FALSE.,
 /
 &NAM_SSON
   CROUGH='Z01D',
   XFRACZ0=5.,
   LDSV=.FALSE.,
   LDSH=.TRUE.,
   LDSL=.TRUE.,
 /
 &NAM_SURF_ATM
   XRIMAX=0.2,
   LNOSOF=.TRUE.,
 /
 &NAM_SURF_CSTS
   XZ0SN=0.01,
   XZ0HSN=0.001,
   XEMISSN=0.99,
  /
 &NAM_SURF_ATMN
   LVERTSHIFT=.TRUE.,
 /
 &NAM_WRITE_DIAG_SURFN
   LPROVAR_TO_DIAG=.FALSE.,
   LSELECT=.TRUE.,
   CSELECT(1)='T2M','HU2M','XX','YY','DX','DY','SST','Z0SEA','TS_WATER','Z0WATER','TG1','TG2','TG3','WG1','WG2','WG3','WGI1','WGI2','WGI3','WR','WSN_VEG1','RSN_VEG1','ASN_VEG','TSRAD_NAT','RESA','TROOF1','TROOF2','TROOF3','TROOF4','TROOF5','WS_ROOF','TROAD1','TROAD2','TROAD3','TROAD4','TROAD5','WS_ROAD','TWALL1','TWALL2','TWALL3','TWALL4','TWALL5','TI_BLD','T_WIN1','TI_ROAD','WSN_RF1','RSN_RF1','TSN_RF1','ASN_RF','WSN_RD1','RSN_RD1','TSN_RD1','ASN_RD','TCANYON','QCANYON','STORAGE_TYPE','MASDEV','VERSION','BUG','DIM_FULL','DTCUR','LAT0','LON0','RPK','BETA','LATORI','LONORI','IMAX','JMAX','RW_PRECIP','BUDC','SEA_OCEAN','SEA_SBL','WAT_SBL','SN_VEG_N','SN_VEG','LSNOW_FRAC_T','GLACIER','TEMPARP','NLITTER','NLITTLEVS','NSOILCARB','ISBA_CANOPY','SN_RF_N','SN_RF','SN_RD_N','SN_RD','SN_RD_TYP','SN_RF_TYP','TEB_CANOPY','STORAGETYPE','CARTESIAN','GRID_TYPE','SN_VEG_TYP','RESPSL','ROAD_DIR','WALL_OPT','LAI','VEG','RSMIN','DG2','_FBUF_SIZE','_FBUF_DIM1','_FBUF_DIM2','_FBUF_NAME','_FBUF_TYPE','_FBUF_MASK','LCPL_GCM','HANDLE_SIC','SSS',
 /
 &NAM_WRITE_SURF_ATM
   LNOWRITE_TEXFILE=.TRUE.,
 /
