 &NAMFPDY2
   CL2DF(1)='SURFPRESSION',
   CLD2DF(1)='EURW1S40:EURW1S100',
   CL2DF(2)='MSL_NHPRESSURE',
   CLD2DF(2)='EURW1S40:EURW1S100',
   CL2DF(3)='SURFTOT.WAT.VAPO',
   CLD2DF(3)='EURW1S40:EURW1S100',
   CL2DF(4)='SURFISOTPW0.MALT',
   CLD2DF(4)='EURW1S40',
   CL2DF(5)='SURFCAPE.POS.F00',
   CLD2DF(5)='EURW1S40:EURW1S100',
   CL2DF(6)='C002_METEOSAT_09_SEVIRI.POS',
   CLD2DF(6)='EURW1S40',
   CL2DF(7)='C006_METEOSAT_09_SEVIRI.POS',
   CLD2DF(7)='EURW1S40:EURW1S100',
   CL2DF(8)='SURFREFLECT.MAX',
   CLD2DF(8)='EURW1S40:EURW1S100',
   CL2DF(9)='SURFISOTPW1.MALT',
   CLD2DF(9)='EURW1S40',
   CL2DF(10)='SURFISOTPW2.MALT',
   CLD2DF(10)='EURW1S40',
   CL2DF(11)='REFLECT_DBZ.MAX',
   CLD2DF(11)='EURW1S40:EURW1S100',
   CL2DF(12)='ECHOTOP',
   CLD2DF(12)='EURW1S40:EURW1S100',
 /
 &NAMFPDYF
 /
 &NAMFPDYH
   CL3DF(1)='TEMPERATURE',
   IL3DF(1,1)=1,2,3,4,5,6,7,8,9,10,11,12,13,14,15,16,17,18,19,20,21,22,23,24,25,
   CLD3DF(1,1)='EURW1S40',
   CLD3DF(2,1)='EURW1S40',
   CLD3DF(3,1)='EURW1S40',
   CLD3DF(4,1)='EURW1S40',
   CLD3DF(5,1)='EURW1S40',
   CLD3DF(6,1)='EURW1S40',
   CLD3DF(7,1)='EURW1S40',
   CLD3DF(8,1)='EURW1S40',
   CLD3DF(9,1)='EURW1S40',
   CLD3DF(10,1)='EURW1S40',
   CLD3DF(11,1)='EURW1S40',
   CLD3DF(12,1)='EURW1S40',
   CLD3DF(13,1)='EURW1S40',
   CLD3DF(14,1)='EURW1S40',
   CLD3DF(15,1)='EURW1S40',
   CLD3DF(16,1)='EURW1S40',
   CLD3DF(17,1)='EURW1S40',
   CLD3DF(18,1)='EURW1S40',
   CLD3DF(19,1)='EURW1S40',
   CLD3DF(20,1)='EURW1S40',
   CLD3DF(21,1)='EURW1S40',
   CLD3DF(22,1)='EURW1S40',
   CLD3DF(23,1)='EURW1S40',
   CLD3DF(24,1)='EURW1S40',
   CLD3DF(25,1)='EURW1S40',
   CL3DF(2)='VENT_ZONAL',
   IL3DF(1,2)=1,2,3,4,5,6,7,8,9,10,11,12,13,14,15,16,17,18,19,20,21,22,23,24,25,
   CLD3DF(1,2)='EURW1S100',
   CLD3DF(2,2)='EURW1S40:EURW1S100',
   CLD3DF(3,2)='EURW1S40',
   CLD3DF(4,2)='EURW1S40:EURW1S100',
   CLD3DF(5,2)='EURW1S40',
   CLD3DF(6,2)='EURW1S40:EURW1S100',
   CLD3DF(7,2)='EURW1S40',
   CLD3DF(8,2)='EURW1S40',
   CLD3DF(9,2)='EURW1S40',
   CLD3DF(10,2)='EURW1S40',
   CLD3DF(11,2)='EURW1S40',
   CLD3DF(12,2)='EURW1S40',
   CLD3DF(13,2)='EURW1S40',
   CLD3DF(14,2)='EURW1S40',
   CLD3DF(15,2)='EURW1S40',
   CLD3DF(16,2)='EURW1S40',
   CLD3DF(17,2)='EURW1S40',
   CLD3DF(18,2)='EURW1S40',
   CLD3DF(19,2)='EURW1S40',
   CLD3DF(20,2)='EURW1S40',
   CLD3DF(21,2)='EURW1S40',
   CLD3DF(22,2)='EURW1S40',
   CLD3DF(23,2)='EURW1S40',
   CLD3DF(24,2)='EURW1S40',
   CLD3DF(25,2)='EURW1S40',
   CL3DF(3)='VENT_MERIDIEN',
   IL3DF(1,3)=1,2,3,4,5,6,7,8,9,10,11,12,13,14,15,16,17,18,19,20,21,22,23,24,25,
   CLD3DF(1,3)='EURW1S100',
   CLD3DF(2,3)='EURW1S40:EURW1S100',
   CLD3DF(3,3)='EURW1S40',
   CLD3DF(4,3)='EURW1S40:EURW1S100',
   CLD3DF(5,3)='EURW1S40',
   CLD3DF(6,3)='EURW1S40:EURW1S100',
   CLD3DF(7,3)='EURW1S40',
   CLD3DF(8,3)='EURW1S40',
   CLD3DF(9,3)='EURW1S40',
   CLD3DF(10,3)='EURW1S40',
   CLD3DF(11,3)='EURW1S40',
   CLD3DF(12,3)='EURW1S40',
   CLD3DF(13,3)='EURW1S40',
   CLD3DF(14,3)='EURW1S40',
   CLD3DF(15,3)='EURW1S40',
   CLD3DF(16,3)='EURW1S40',
   CLD3DF(17,3)='EURW1S40',
   CLD3DF(18,3)='EURW1S40',
   CLD3DF(19,3)='EURW1S40',
   CLD3DF(20,3)='EURW1S40',
   CLD3DF(21,3)='EURW1S40',
   CLD3DF(22,3)='EURW1S40',
   CLD3DF(23,3)='EURW1S40',
   CLD3DF(24,3)='EURW1S40',
   CLD3DF(25,3)='EURW1S40',
   CL3DF(4)='HUMI_RELATIVE',
   IL3DF(1,4)=1,2,3,4,5,6,7,8,9,10,11,12,13,14,15,16,17,18,19,20,21,22,23,24,25,
   CLD3DF(1,4)='EURW1S40:EURW1S100',
   CLD3DF(2,4)='EURW1S40:EURW1S100',
   CLD3DF(3,4)='EURW1S40',
   CLD3DF(4,4)='EURW1S40:EURW1S100',
   CLD3DF(5,4)='EURW1S40',
   CLD3DF(6,4)='EURW1S40:EURW1S100',
   CLD3DF(7,4)='EURW1S40',
   CLD3DF(8,4)='EURW1S40',
   CLD3DF(9,4)='EURW1S40',
   CLD3DF(10,4)='EURW1S40',
   CLD3DF(11,4)='EURW1S40',
   CLD3DF(12,4)='EURW1S40',
   CLD3DF(13,4)='EURW1S40',
   CLD3DF(14,4)='EURW1S40',
   CLD3DF(15,4)='EURW1S40',
   CLD3DF(16,4)='EURW1S40',
   CLD3DF(17,4)='EURW1S40',
   CLD3DF(18,4)='EURW1S40',
   CLD3DF(19,4)='EURW1S40',
   CLD3DF(20,4)='EURW1S40',
   CLD3DF(21,4)='EURW1S40',
   CLD3DF(22,4)='EURW1S40',
   CLD3DF(23,4)='EURW1S40',
   CLD3DF(24,4)='EURW1S40',
   CLD3DF(25,4)='EURW1S40',
   CL3DF(5)='THETA_PRIM_W',
   IL3DF(1,5)=1,2,3,4,5,6,7,8,9,10,11,12,13,14,15,16,17,18,19,20,21,22,23,24,25,
   CLD3DF(1,5)='EURW1S40',
   CLD3DF(2,5)='EURW1S40',
   CLD3DF(3,5)='EURW1S40',
   CLD3DF(4,5)='EURW1S40',
   CLD3DF(5,5)='EURW1S40',
   CLD3DF(6,5)='EURW1S40',
   CLD3DF(7,5)='EURW1S40',
   CLD3DF(8,5)='EURW1S40',
   CLD3DF(9,5)='EURW1S40',
   CLD3DF(10,5)='EURW1S40',
   CLD3DF(11,5)='EURW1S40',
   CLD3DF(12,5)='EURW1S40',
   CLD3DF(13,5)='EURW1S40',
   CLD3DF(14,5)='EURW1S40',
   CLD3DF(15,5)='EURW1S40',
   CLD3DF(16,5)='EURW1S40',
   CLD3DF(17,5)='EURW1S40',
   CLD3DF(18,5)='EURW1S40',
   CLD3DF(19,5)='EURW1S40',
   CLD3DF(20,5)='EURW1S40',
   CLD3DF(21,5)='EURW1S40',
   CLD3DF(22,5)='EURW1S40',
   CLD3DF(23,5)='EURW1S40',
   CLD3DF(24,5)='EURW1S40',
   CLD3DF(25,5)='EURW1S40',
   CL3DF(6)='PRESSURE',
   IL3DF(1,6)=1,2,3,4,5,6,7,8,9,10,11,12,13,14,15,16,17,18,19,20,21,22,23,24,25,
   CLD3DF(1,6)='EURW1S40',
   CLD3DF(2,6)='EURW1S40',
   CLD3DF(3,6)='EURW1S40',
   CLD3DF(4,6)='EURW1S40',
   CLD3DF(5,6)='EURW1S40',
   CLD3DF(6,6)='EURW1S40',
   CLD3DF(7,6)='EURW1S40',
   CLD3DF(8,6)='EURW1S40',
   CLD3DF(9,6)='EURW1S40',
   CLD3DF(10,6)='EURW1S40',
   CLD3DF(11,6)='EURW1S40',
   CLD3DF(12,6)='EURW1S40',
   CLD3DF(13,6)='EURW1S40',
   CLD3DF(14,6)='EURW1S40',
   CLD3DF(15,6)='EURW1S40',
   CLD3DF(16,6)='EURW1S40',
   CLD3DF(17,6)='EURW1S40',
   CLD3DF(18,6)='EURW1S40',
   CLD3DF(19,6)='EURW1S40',
   CLD3DF(20,6)='EURW1S40',
   CLD3DF(21,6)='EURW1S40',
   CLD3DF(22,6)='EURW1S40',
   CLD3DF(23,6)='EURW1S40',
   CLD3DF(24,6)='EURW1S40',
   CLD3DF(25,6)='EURW1S40',
   CL3DF(7)='SIM_REFLECTI',
   IL3DF(1,7)=11,13,15,19,21,23,25,
   CLD3DF(1,7)='EURW1S40',
   CLD3DF(2,7)='EURW1S40',
   CLD3DF(3,7)='EURW1S40',
   CLD3DF(4,7)='EURW1S40',
   CLD3DF(5,7)='EURW1S40',
   CLD3DF(6,7)='EURW1S40',
   CLD3DF(7,7)='EURW1S40',
   CL3DF(8)='RAIN',
   IL3DF(1,8)=1,2,3,4,5,6,7,8,9,10,11,12,13,14,15,16,17,18,19,20,21,22,23,24,25,
   CLD3DF(1,8)='EURW1S40',
   CLD3DF(2,8)='EURW1S40',
   CLD3DF(3,8)='EURW1S40',
   CLD3DF(4,8)='EURW1S40',
   CLD3DF(5,8)='EURW1S40',
   CLD3DF(6,8)='EURW1S40',
   CLD3DF(7,8)='EURW1S40',
   CLD3DF(8,8)='EURW1S40',
   CLD3DF(9,8)='EURW1S40',
   CLD3DF(10,8)='EURW1S40',
   CLD3DF(11,8)='EURW1S40',
   CLD3DF(12,8)='EURW1S40',
   CLD3DF(13,8)='EURW1S40',
   CLD3DF(14,8)='EURW1S40',
   CLD3DF(15,8)='EURW1S40',
   CLD3DF(16,8)='EURW1S40',
   CLD3DF(17,8)='EURW1S40',
   CLD3DF(18,8)='EURW1S40',
   CLD3DF(19,8)='EURW1S40',
   CLD3DF(20,8)='EURW1S40',
   CLD3DF(21,8)='EURW1S40',
   CLD3DF(22,8)='EURW1S40',
   CLD3DF(23,8)='EURW1S40',
   CLD3DF(24,8)='EURW1S40',
   CLD3DF(25,8)='EURW1S40',
   CL3DF(9)='SNOW',
   IL3DF(1,9)=1,2,3,4,5,6,7,8,9,10,11,12,13,14,15,16,17,18,19,20,21,22,23,24,25,
   CLD3DF(1,9)='EURW1S40',
   CLD3DF(2,9)='EURW1S40',
   CLD3DF(3,9)='EURW1S40',
   CLD3DF(4,9)='EURW1S40',
   CLD3DF(5,9)='EURW1S40',
   CLD3DF(6,9)='EURW1S40',
   CLD3DF(7,9)='EURW1S40',
   CLD3DF(8,9)='EURW1S40',
   CLD3DF(9,9)='EURW1S40',
   CLD3DF(10,9)='EURW1S40',
   CLD3DF(11,9)='EURW1S40',
   CLD3DF(12,9)='EURW1S40',
   CLD3DF(13,9)='EURW1S40',
   CLD3DF(14,9)='EURW1S40',
   CLD3DF(15,9)='EURW1S40',
   CLD3DF(16,9)='EURW1S40',
   CLD3DF(17,9)='EURW1S40',
   CLD3DF(18,9)='EURW1S40',
   CLD3DF(19,9)='EURW1S40',
   CLD3DF(20,9)='EURW1S40',
   CLD3DF(21,9)='EURW1S40',
   CLD3DF(22,9)='EURW1S40',
   CLD3DF(23,9)='EURW1S40',
   CLD3DF(24,9)='EURW1S40',
   CLD3DF(25,9)='EURW1S40',
   CL3DF(10)='GRAUPEL',
   IL3DF(1,10)=1,2,3,4,5,6,7,8,9,10,11,12,13,14,15,16,17,18,19,20,21,22,23,24,25,
   CLD3DF(1,10)='EURW1S40',
   CLD3DF(2,10)='EURW1S40',
   CLD3DF(3,10)='EURW1S40',
   CLD3DF(4,10)='EURW1S40',
   CLD3DF(5,10)='EURW1S40',
   CLD3DF(6,10)='EURW1S40',
   CLD3DF(7,10)='EURW1S40',
   CLD3DF(8,10)='EURW1S40',
   CLD3DF(9,10)='EURW1S40',
   CLD3DF(10,10)='EURW1S40',
   CLD3DF(11,10)='EURW1S40',
   CLD3DF(12,10)='EURW1S40',
   CLD3DF(13,10)='EURW1S40',
   CLD3DF(14,10)='EURW1S40',
   CLD3DF(15,10)='EURW1S40',
   CLD3DF(16,10)='EURW1S40',
   CLD3DF(17,10)='EURW1S40',
   CLD3DF(18,10)='EURW1S40',
   CLD3DF(19,10)='EURW1S40',
   CLD3DF(20,10)='EURW1S40',
   CLD3DF(21,10)='EURW1S40',
   CLD3DF(22,10)='EURW1S40',
   CLD3DF(23,10)='EURW1S40',
   CLD3DF(24,10)='EURW1S40',
   CLD3DF(25,10)='EURW1S40',
   CL3DF(11)='ICE_CRYSTAL',
   IL3DF(1,11)=1,2,3,4,5,6,7,8,9,10,11,12,13,14,15,16,17,18,19,20,21,22,23,24,25,
   CLD3DF(1,11)='EURW1S40',
   CLD3DF(2,11)='EURW1S40',
   CLD3DF(3,11)='EURW1S40',
   CLD3DF(4,11)='EURW1S40',
   CLD3DF(5,11)='EURW1S40',
   CLD3DF(6,11)='EURW1S40',
   CLD3DF(7,11)='EURW1S40',
   CLD3DF(8,11)='EURW1S40',
   CLD3DF(9,11)='EURW1S40',
   CLD3DF(10,11)='EURW1S40',
   CLD3DF(11,11)='EURW1S40',
   CLD3DF(12,11)='EURW1S40',
   CLD3DF(13,11)='EURW1S40',
   CLD3DF(14,11)='EURW1S40',
   CLD3DF(15,11)='EURW1S40',
   CLD3DF(16,11)='EURW1S40',
   CLD3DF(17,11)='EURW1S40',
   CLD3DF(18,11)='EURW1S40',
   CLD3DF(19,11)='EURW1S40',
   CLD3DF(20,11)='EURW1S40',
   CLD3DF(21,11)='EURW1S40',
   CLD3DF(22,11)='EURW1S40',
   CLD3DF(23,11)='EURW1S40',
   CLD3DF(24,11)='EURW1S40',
   CLD3DF(25,11)='EURW1S40',
   CL3DF(12)='CLOUD_WATER',
   IL3DF(1,12)=1,2,3,4,5,6,7,8,9,10,11,12,13,14,15,16,17,18,19,20,21,22,23,24,25,
   CLD3DF(1,12)='EURW1S40',
   CLD3DF(2,12)='EURW1S40',
   CLD3DF(3,12)='EURW1S40',
   CLD3DF(4,12)='EURW1S40',
   CLD3DF(5,12)='EURW1S40',
   CLD3DF(6,12)='EURW1S40',
   CLD3DF(7,12)='EURW1S40',
   CLD3DF(8,12)='EURW1S40',
   CLD3DF(9,12)='EURW1S40',
   CLD3DF(10,12)='EURW1S40',
   CLD3DF(11,12)='EURW1S40',
   CLD3DF(12,12)='EURW1S40',
   CLD3DF(13,12)='EURW1S40',
   CLD3DF(14,12)='EURW1S40',
   CLD3DF(15,12)='EURW1S40',
   CLD3DF(16,12)='EURW1S40',
   CLD3DF(17,12)='EURW1S40',
   CLD3DF(18,12)='EURW1S40',
   CLD3DF(19,12)='EURW1S40',
   CLD3DF(20,12)='EURW1S40',
   CLD3DF(21,12)='EURW1S40',
   CLD3DF(22,12)='EURW1S40',
   CLD3DF(23,12)='EURW1S40',
   CLD3DF(24,12)='EURW1S40',
   CLD3DF(25,12)='EURW1S40',
   CL3DF(13)='TKE',
   IL3DF(1,13)=1,2,3,4,5,6,7,8,9,10,11,12,13,14,15,16,17,18,19,20,21,22,23,24,25,
   CLD3DF(1,13)='EURW1S40',
   CLD3DF(2,13)='EURW1S40',
   CLD3DF(3,13)='EURW1S40',
   CLD3DF(4,13)='EURW1S40',
   CLD3DF(5,13)='EURW1S40',
   CLD3DF(6,13)='EURW1S40',
   CLD3DF(7,13)='EURW1S40',
   CLD3DF(8,13)='EURW1S40',
   CLD3DF(9,13)='EURW1S40',
   CLD3DF(10,13)='EURW1S40',
   CLD3DF(11,13)='EURW1S40',
   CLD3DF(12,13)='EURW1S40',
   CLD3DF(13,13)='EURW1S40',
   CLD3DF(14,13)='EURW1S40',
   CLD3DF(15,13)='EURW1S40',
   CLD3DF(16,13)='EURW1S40',
   CLD3DF(17,13)='EURW1S40',
   CLD3DF(18,13)='EURW1S40',
   CLD3DF(19,13)='EURW1S40',
   CLD3DF(20,13)='EURW1S40',
   CLD3DF(21,13)='EURW1S40',
   CLD3DF(22,13)='EURW1S40',
   CLD3DF(23,13)='EURW1S40',
   CLD3DF(24,13)='EURW1S40',
   CLD3DF(25,13)='EURW1S40',
   CL3DF(14)='CLOUD_FRACTI',
   IL3DF(1,14)=1,2,3,4,5,6,7,8,9,10,11,12,13,14,15,16,17,18,19,20,21,22,23,24,25,
   CLD3DF(1,14)='EURW1S40',
   CLD3DF(2,14)='EURW1S40',
   CLD3DF(3,14)='EURW1S40',
   CLD3DF(4,14)='EURW1S40',
   CLD3DF(5,14)='EURW1S40',
   CLD3DF(6,14)='EURW1S40',
   CLD3DF(7,14)='EURW1S40',
   CLD3DF(8,14)='EURW1S40',
   CLD3DF(9,14)='EURW1S40',
   CLD3DF(10,14)='EURW1S40',
   CLD3DF(11,14)='EURW1S40',
   CLD3DF(12,14)='EURW1S40',
   CLD3DF(13,14)='EURW1S40',
   CLD3DF(14,14)='EURW1S40',
   CLD3DF(15,14)='EURW1S40',
   CLD3DF(16,14)='EURW1S40',
   CLD3DF(17,14)='EURW1S40',
   CLD3DF(18,14)='EURW1S40',
   CLD3DF(19,14)='EURW1S40',
   CLD3DF(20,14)='EURW1S40',
   CLD3DF(21,14)='EURW1S40',
   CLD3DF(22,14)='EURW1S40',
   CLD3DF(23,14)='EURW1S40',
   CLD3DF(24,14)='EURW1S40',
   CLD3DF(25,14)='EURW1S40',
   CL3DF(15)='REFLEC_DBZ',
   IL3DF(1,15)=11,13,15,19,21,23,25,
   CLD3DF(1,15)='EURW1S40',
   CLD3DF(2,15)='EURW1S40',
   CLD3DF(3,15)='EURW1S40',
   CLD3DF(4,15)='EURW1S40',
   CLD3DF(5,15)='EURW1S40',
   CLD3DF(6,15)='EURW1S40',
   CLD3DF(7,15)='EURW1S40',
   CL3DF(16)='TPRIM_W',
   IL3DF(1,16)=1,2,3,4,5,6,7,8,9,10,11,12,13,14,15,16,17,18,19,20,21,22,23,24,25,
   CLD3DF(1,16)='EURW1S40',
   CLD3DF(2,16)='EURW1S40',
   CLD3DF(3,16)='EURW1S40',
   CLD3DF(4,16)='EURW1S40',
   CLD3DF(5,16)='EURW1S40',
   CLD3DF(6,16)='EURW1S40',
   CLD3DF(7,16)='EURW1S40',
   CLD3DF(8,16)='EURW1S40',
   CLD3DF(9,16)='EURW1S40',
   CLD3DF(10,16)='EURW1S40',
   CLD3DF(11,16)='EURW1S40',
   CLD3DF(12,16)='EURW1S40',
   CLD3DF(13,16)='EURW1S40',
   CLD3DF(14,16)='EURW1S40',
   CLD3DF(15,16)='EURW1S40',
   CLD3DF(16,16)='EURW1S40',
   CLD3DF(17,16)='EURW1S40',
   CLD3DF(18,16)='EURW1S40',
   CLD3DF(19,16)='EURW1S40',
   CLD3DF(20,16)='EURW1S40',
   CLD3DF(21,16)='EURW1S40',
   CLD3DF(22,16)='EURW1S40',
   CLD3DF(23,16)='EURW1S40',
   CLD3DF(24,16)='EURW1S40',
   CLD3DF(25,16)='EURW1S40',
   CL3DF(17)='THETA_VIRTUA',
   IL3DF(1,17)=2,
   CLD3DF(1,17)='EURW1S40',
   CL3DF(18)='EDR',
   IL3DF(1,18)=1,2,3,4,5,6,7,8,9,10,11,12,13,14,15,16,17,18,19,20,21,22,23,24,25,
   CLD3DF(1,18)='EURW1S40',
   CLD3DF(2,18)='EURW1S40',
   CLD3DF(3,18)='EURW1S40',
   CLD3DF(4,18)='EURW1S40',
   CLD3DF(5,18)='EURW1S40',
   CLD3DF(6,18)='EURW1S40',
   CLD3DF(7,18)='EURW1S40',
   CLD3DF(8,18)='EURW1S40',
   CLD3DF(9,18)='EURW1S40',
   CLD3DF(10,18)='EURW1S40',
   CLD3DF(11,18)='EURW1S40',
   CLD3DF(12,18)='EURW1S40',
   CLD3DF(13,18)='EURW1S40',
   CLD3DF(14,18)='EURW1S40',
   CLD3DF(15,18)='EURW1S40',
   CLD3DF(16,18)='EURW1S40',
   CLD3DF(17,18)='EURW1S40',
   CLD3DF(18,18)='EURW1S40',
   CLD3DF(19,18)='EURW1S40',
   CLD3DF(20,18)='EURW1S40',
   CLD3DF(21,18)='EURW1S40',
   CLD3DF(22,18)='EURW1S40',
   CLD3DF(23,18)='EURW1S40',
   CLD3DF(24,18)='EURW1S40',
   CLD3DF(25,18)='EURW1S40',
 /
 &NAMFPDYI
   CL3DF(1)='ISOT_ALTIT',
   IL3DF(1,1)=1,2,3,4,
   CLD3DF(1,1)='EURW1S40',
   CLD3DF(2,1)='EURW1S40',
   CLD3DF(3,1)='EURW1S40',
   CLD3DF(4,1)='EURW1S40',
 /
 &NAMFPDYP
   CL3DF(1)='GEOPOTENTIEL',
   IL3DF(1,1)=1,2,3,4,5,6,7,8,9,10,11,12,13,14,15,16,17,18,19,20,21,22,23,24,
   CLD3DF(1,1)='EURW1S40',
   CLD3DF(2,1)='EURW1S40',
   CLD3DF(3,1)='EURW1S40',
   CLD3DF(4,1)='EURW1S40',
   CLD3DF(5,1)='EURW1S40',
   CLD3DF(6,1)='EURW1S40',
   CLD3DF(7,1)='EURW1S40',
   CLD3DF(8,1)='EURW1S40',
   CLD3DF(9,1)='EURW1S40',
   CLD3DF(10,1)='EURW1S40',
   CLD3DF(11,1)='EURW1S40',
   CLD3DF(12,1)='EURW1S40',
   CLD3DF(13,1)='EURW1S40',
   CLD3DF(14,1)='EURW1S40',
   CLD3DF(15,1)='EURW1S40',
   CLD3DF(16,1)='EURW1S40',
   CLD3DF(17,1)='EURW1S40',
   CLD3DF(18,1)='EURW1S40',
   CLD3DF(19,1)='EURW1S40',
   CLD3DF(20,1)='EURW1S40',
   CLD3DF(21,1)='EURW1S40',
   CLD3DF(22,1)='EURW1S40',
   CLD3DF(23,1)='EURW1S40',
   CLD3DF(24,1)='EURW1S40',
   CL3DF(2)='TEMPERATURE',
   IL3DF(1,2)=1,2,3,4,5,6,7,8,9,10,11,12,13,14,15,16,17,18,19,20,21,22,23,24,
   CLD3DF(1,2)='EURW1S40',
   CLD3DF(2,2)='EURW1S40',
   CLD3DF(3,2)='EURW1S40',
   CLD3DF(4,2)='EURW1S40',
   CLD3DF(5,2)='EURW1S40',
   CLD3DF(6,2)='EURW1S40',
   CLD3DF(7,2)='EURW1S40',
   CLD3DF(8,2)='EURW1S40',
   CLD3DF(9,2)='EURW1S40',
   CLD3DF(10,2)='EURW1S40',
   CLD3DF(11,2)='EURW1S40',
   CLD3DF(12,2)='EURW1S40',
   CLD3DF(13,2)='EURW1S40',
   CLD3DF(14,2)='EURW1S40',
   CLD3DF(15,2)='EURW1S40',
   CLD3DF(16,2)='EURW1S40',
   CLD3DF(17,2)='EURW1S40',
   CLD3DF(18,2)='EURW1S40',
   CLD3DF(19,2)='EURW1S40',
   CLD3DF(20,2)='EURW1S40',
   CLD3DF(21,2)='EURW1S40',
   CLD3DF(22,2)='EURW1S40',
   CLD3DF(23,2)='EURW1S40',
   CLD3DF(24,2)='EURW1S40',
   CL3DF(3)='VENT_ZONAL',
   IL3DF(1,3)=1,2,3,4,5,6,7,8,9,10,11,12,13,14,15,16,17,18,19,20,21,22,23,24,
   CLD3DF(1,3)='EURW1S40',
   CLD3DF(2,3)='EURW1S40',
   CLD3DF(3,3)='EURW1S40',
   CLD3DF(4,3)='EURW1S40',
   CLD3DF(5,3)='EURW1S40',
   CLD3DF(6,3)='EURW1S40',
   CLD3DF(7,3)='EURW1S40',
   CLD3DF(8,3)='EURW1S40',
   CLD3DF(9,3)='EURW1S40',
   CLD3DF(10,3)='EURW1S40',
   CLD3DF(11,3)='EURW1S40',
   CLD3DF(12,3)='EURW1S40',
   CLD3DF(13,3)='EURW1S40',
   CLD3DF(14,3)='EURW1S40',
   CLD3DF(15,3)='EURW1S40',
   CLD3DF(16,3)='EURW1S40',
   CLD3DF(17,3)='EURW1S40',
   CLD3DF(18,3)='EURW1S40',
   CLD3DF(19,3)='EURW1S40',
   CLD3DF(20,3)='EURW1S40',
   CLD3DF(21,3)='EURW1S40',
   CLD3DF(22,3)='EURW1S40',
   CLD3DF(23,3)='EURW1S40',
   CLD3DF(24,3)='EURW1S40',
   CL3DF(4)='VENT_MERIDIEN',
   IL3DF(1,4)=1,2,3,4,5,6,7,8,9,10,11,12,13,14,15,16,17,18,19,20,21,22,23,24,
   CLD3DF(1,4)='EURW1S40',
   CLD3DF(2,4)='EURW1S40',
   CLD3DF(3,4)='EURW1S40',
   CLD3DF(4,4)='EURW1S40',
   CLD3DF(5,4)='EURW1S40',
   CLD3DF(6,4)='EURW1S40',
   CLD3DF(7,4)='EURW1S40',
   CLD3DF(8,4)='EURW1S40',
   CLD3DF(9,4)='EURW1S40',
   CLD3DF(10,4)='EURW1S40',
   CLD3DF(11,4)='EURW1S40',
   CLD3DF(12,4)='EURW1S40',
   CLD3DF(13,4)='EURW1S40',
   CLD3DF(14,4)='EURW1S40',
   CLD3DF(15,4)='EURW1S40',
   CLD3DF(16,4)='EURW1S40',
   CLD3DF(17,4)='EURW1S40',
   CLD3DF(18,4)='EURW1S40',
   CLD3DF(19,4)='EURW1S40',
   CLD3DF(20,4)='EURW1S40',
   CLD3DF(21,4)='EURW1S40',
   CLD3DF(22,4)='EURW1S40',
   CLD3DF(23,4)='EURW1S40',
   CLD3DF(24,4)='EURW1S40',
   CL3DF(5)='HUMI_RELATIVE',
   IL3DF(1,5)=1,2,3,4,5,6,7,8,9,10,11,12,13,14,15,16,17,18,19,20,21,22,23,24,
   CLD3DF(1,5)='EURW1S40',
   CLD3DF(2,5)='EURW1S40',
   CLD3DF(3,5)='EURW1S40',
   CLD3DF(4,5)='EURW1S40',
   CLD3DF(5,5)='EURW1S40',
   CLD3DF(6,5)='EURW1S40',
   CLD3DF(7,5)='EURW1S40',
   CLD3DF(8,5)='EURW1S40',
   CLD3DF(9,5)='EURW1S40',
   CLD3DF(10,5)='EURW1S40',
   CLD3DF(11,5)='EURW1S40',
   CLD3DF(12,5)='EURW1S40',
   CLD3DF(13,5)='EURW1S40',
   CLD3DF(14,5)='EURW1S40',
   CLD3DF(15,5)='EURW1S40',
   CLD3DF(16,5)='EURW1S40',
   CLD3DF(17,5)='EURW1S40',
   CLD3DF(18,5)='EURW1S40',
   CLD3DF(19,5)='EURW1S40',
   CLD3DF(20,5)='EURW1S40',
   CLD3DF(21,5)='EURW1S40',
   CLD3DF(22,5)='EURW1S40',
   CLD3DF(23,5)='EURW1S40',
   CLD3DF(24,5)='EURW1S40',
   CL3DF(6)='THETA_PRIM_W',
   IL3DF(1,6)=5,6,7,8,9,10,11,12,13,14,15,16,17,18,19,20,21,22,23,24,
   CLD3DF(1,6)='EURW1S40',
   CLD3DF(2,6)='EURW1S40',
   CLD3DF(3,6)='EURW1S40',
   CLD3DF(4,6)='EURW1S40',
   CLD3DF(5,6)='EURW1S40',
   CLD3DF(6,6)='EURW1S40',
   CLD3DF(7,6)='EURW1S40',
   CLD3DF(8,6)='EURW1S40',
   CLD3DF(9,6)='EURW1S40',
   CLD3DF(10,6)='EURW1S40',
   CLD3DF(11,6)='EURW1S40',
   CLD3DF(12,6)='EURW1S40',
   CLD3DF(13,6)='EURW1S40',
   CLD3DF(14,6)='EURW1S40',
   CLD3DF(15,6)='EURW1S40',
   CLD3DF(16,6)='EURW1S40',
   CLD3DF(17,6)='EURW1S40',
   CLD3DF(18,6)='EURW1S40',
   CLD3DF(19,6)='EURW1S40',
   CLD3DF(20,6)='EURW1S40',
   CL3DF(7)='ABS_VORTICITY',
   IL3DF(1,7)=9,13,15,17,20,
   CLD3DF(1,7)='EURW1S40',
   CLD3DF(2,7)='EURW1S40',
   CLD3DF(3,7)='EURW1S40',
   CLD3DF(4,7)='EURW1S40',
   CLD3DF(5,7)='EURW1S40',
   CL3DF(8)='VITESSE_VERTICALE',
   IL3DF(1,8)=1,2,3,4,5,6,7,8,9,10,11,12,13,14,15,16,17,18,19,20,21,22,23,24,
   CLD3DF(1,8)='EURW1S40',
   CLD3DF(2,8)='EURW1S40',
   CLD3DF(3,8)='EURW1S40',
   CLD3DF(4,8)='EURW1S40',
   CLD3DF(5,8)='EURW1S40',
   CLD3DF(6,8)='EURW1S40',
   CLD3DF(7,8)='EURW1S40',
   CLD3DF(8,8)='EURW1S40',
   CLD3DF(9,8)='EURW1S40',
   CLD3DF(10,8)='EURW1S40',
   CLD3DF(11,8)='EURW1S40',
   CLD3DF(12,8)='EURW1S40',
   CLD3DF(13,8)='EURW1S40',
   CLD3DF(14,8)='EURW1S40',
   CLD3DF(15,8)='EURW1S40',
   CLD3DF(16,8)='EURW1S40',
   CLD3DF(17,8)='EURW1S40',
   CLD3DF(18,8)='EURW1S40',
   CLD3DF(19,8)='EURW1S40',
   CLD3DF(20,8)='EURW1S40',
   CLD3DF(21,8)='EURW1S40',
   CLD3DF(22,8)='EURW1S40',
   CLD3DF(23,8)='EURW1S40',
   CLD3DF(24,8)='EURW1S40',
   CL3DF(9)='POT_VORTICIT',
   IL3DF(1,9)=1,2,3,4,5,6,7,8,9,10,11,12,13,14,15,16,17,18,19,20,21,22,23,24,
   CLD3DF(1,9)='EURW1S40',
   CLD3DF(2,9)='EURW1S40',
   CLD3DF(3,9)='EURW1S40',
   CLD3DF(4,9)='EURW1S40',
   CLD3DF(5,9)='EURW1S40',
   CLD3DF(6,9)='EURW1S40',
   CLD3DF(7,9)='EURW1S40',
   CLD3DF(8,9)='EURW1S40',
   CLD3DF(9,9)='EURW1S40',
   CLD3DF(10,9)='EURW1S40',
   CLD3DF(11,9)='EURW1S40',
   CLD3DF(12,9)='EURW1S40',
   CLD3DF(13,9)='EURW1S40',
   CLD3DF(14,9)='EURW1S40',
   CLD3DF(15,9)='EURW1S40',
   CLD3DF(16,9)='EURW1S40',
   CLD3DF(17,9)='EURW1S40',
   CLD3DF(18,9)='EURW1S40',
   CLD3DF(19,9)='EURW1S40',
   CLD3DF(20,9)='EURW1S40',
   CLD3DF(21,9)='EURW1S40',
   CLD3DF(22,9)='EURW1S40',
   CLD3DF(23,9)='EURW1S40',
   CLD3DF(24,9)='EURW1S40',
   CL3DF(10)='SIM_REFLECTI',
   IL3DF(1,10)=5,7,9,10,11,12,13,14,15,16,17,18,19,20,21,22,
   CLD3DF(1,10)='EURW1S40',
   CLD3DF(2,10)='EURW1S40',
   CLD3DF(3,10)='EURW1S40',
   CLD3DF(4,10)='EURW1S40',
   CLD3DF(5,10)='EURW1S40',
   CLD3DF(6,10)='EURW1S40',
   CLD3DF(7,10)='EURW1S40',
   CLD3DF(8,10)='EURW1S40',
   CLD3DF(9,10)='EURW1S40',
   CLD3DF(10,10)='EURW1S40',
   CLD3DF(11,10)='EURW1S40',
   CLD3DF(12,10)='EURW1S40',
   CLD3DF(13,10)='EURW1S40',
   CLD3DF(14,10)='EURW1S40',
   CLD3DF(15,10)='EURW1S40',
   CLD3DF(16,10)='EURW1S40',
   CL3DF(11)='RAIN',
   IL3DF(1,11)=1,2,3,4,5,6,7,8,9,10,11,12,13,14,15,16,17,18,19,20,21,22,23,24,
   CLD3DF(1,11)='EURW1S40',
   CLD3DF(2,11)='EURW1S40',
   CLD3DF(3,11)='EURW1S40',
   CLD3DF(4,11)='EURW1S40',
   CLD3DF(5,11)='EURW1S40',
   CLD3DF(6,11)='EURW1S40',
   CLD3DF(7,11)='EURW1S40',
   CLD3DF(8,11)='EURW1S40',
   CLD3DF(9,11)='EURW1S40',
   CLD3DF(10,11)='EURW1S40',
   CLD3DF(11,11)='EURW1S40',
   CLD3DF(12,11)='EURW1S40',
   CLD3DF(13,11)='EURW1S40',
   CLD3DF(14,11)='EURW1S40',
   CLD3DF(15,11)='EURW1S40',
   CLD3DF(16,11)='EURW1S40',
   CLD3DF(17,11)='EURW1S40',
   CLD3DF(18,11)='EURW1S40',
   CLD3DF(19,11)='EURW1S40',
   CLD3DF(20,11)='EURW1S40',
   CLD3DF(21,11)='EURW1S40',
   CLD3DF(22,11)='EURW1S40',
   CLD3DF(23,11)='EURW1S40',
   CLD3DF(24,11)='EURW1S40',
   CL3DF(12)='SNOW',
   IL3DF(1,12)=1,2,3,4,5,6,7,8,9,10,11,12,13,14,15,16,17,18,19,20,21,22,23,24,
   CLD3DF(1,12)='EURW1S40',
   CLD3DF(2,12)='EURW1S40',
   CLD3DF(3,12)='EURW1S40',
   CLD3DF(4,12)='EURW1S40',
   CLD3DF(5,12)='EURW1S40',
   CLD3DF(6,12)='EURW1S40',
   CLD3DF(7,12)='EURW1S40',
   CLD3DF(8,12)='EURW1S40',
   CLD3DF(9,12)='EURW1S40',
   CLD3DF(10,12)='EURW1S40',
   CLD3DF(11,12)='EURW1S40',
   CLD3DF(12,12)='EURW1S40',
   CLD3DF(13,12)='EURW1S40',
   CLD3DF(14,12)='EURW1S40',
   CLD3DF(15,12)='EURW1S40',
   CLD3DF(16,12)='EURW1S40',
   CLD3DF(17,12)='EURW1S40',
   CLD3DF(18,12)='EURW1S40',
   CLD3DF(19,12)='EURW1S40',
   CLD3DF(20,12)='EURW1S40',
   CLD3DF(21,12)='EURW1S40',
   CLD3DF(22,12)='EURW1S40',
   CLD3DF(23,12)='EURW1S40',
   CLD3DF(24,12)='EURW1S40',
   CL3DF(13)='GRAUPEL',
   IL3DF(1,13)=1,2,3,4,5,6,7,8,9,10,11,12,13,14,15,16,17,18,19,20,21,22,23,24,
   CLD3DF(1,13)='EURW1S40',
   CLD3DF(2,13)='EURW1S40',
   CLD3DF(3,13)='EURW1S40',
   CLD3DF(4,13)='EURW1S40',
   CLD3DF(5,13)='EURW1S40',
   CLD3DF(6,13)='EURW1S40',
   CLD3DF(7,13)='EURW1S40',
   CLD3DF(8,13)='EURW1S40',
   CLD3DF(9,13)='EURW1S40',
   CLD3DF(10,13)='EURW1S40',
   CLD3DF(11,13)='EURW1S40',
   CLD3DF(12,13)='EURW1S40',
   CLD3DF(13,13)='EURW1S40',
   CLD3DF(14,13)='EURW1S40',
   CLD3DF(15,13)='EURW1S40',
   CLD3DF(16,13)='EURW1S40',
   CLD3DF(17,13)='EURW1S40',
   CLD3DF(18,13)='EURW1S40',
   CLD3DF(19,13)='EURW1S40',
   CLD3DF(20,13)='EURW1S40',
   CLD3DF(21,13)='EURW1S40',
   CLD3DF(22,13)='EURW1S40',
   CLD3DF(23,13)='EURW1S40',
   CLD3DF(24,13)='EURW1S40',
   CL3DF(14)='ICE_CRYSTAL',
   IL3DF(1,14)=1,2,3,4,5,6,7,8,9,10,11,12,13,14,15,16,17,18,19,20,21,22,23,24,
   CLD3DF(1,14)='EURW1S40',
   CLD3DF(2,14)='EURW1S40',
   CLD3DF(3,14)='EURW1S40',
   CLD3DF(4,14)='EURW1S40',
   CLD3DF(5,14)='EURW1S40',
   CLD3DF(6,14)='EURW1S40',
   CLD3DF(7,14)='EURW1S40',
   CLD3DF(8,14)='EURW1S40',
   CLD3DF(9,14)='EURW1S40',
   CLD3DF(10,14)='EURW1S40',
   CLD3DF(11,14)='EURW1S40',
   CLD3DF(12,14)='EURW1S40',
   CLD3DF(13,14)='EURW1S40',
   CLD3DF(14,14)='EURW1S40',
   CLD3DF(15,14)='EURW1S40',
   CLD3DF(16,14)='EURW1S40',
   CLD3DF(17,14)='EURW1S40',
   CLD3DF(18,14)='EURW1S40',
   CLD3DF(19,14)='EURW1S40',
   CLD3DF(20,14)='EURW1S40',
   CLD3DF(21,14)='EURW1S40',
   CLD3DF(22,14)='EURW1S40',
   CLD3DF(23,14)='EURW1S40',
   CLD3DF(24,14)='EURW1S40',
   CL3DF(15)='CLOUD_WATER',
   IL3DF(1,15)=1,2,3,4,5,6,7,8,9,10,11,12,13,14,15,16,17,18,19,20,21,22,23,24,
   CLD3DF(1,15)='EURW1S40',
   CLD3DF(2,15)='EURW1S40',
   CLD3DF(3,15)='EURW1S40',
   CLD3DF(4,15)='EURW1S40',
   CLD3DF(5,15)='EURW1S40',
   CLD3DF(6,15)='EURW1S40',
   CLD3DF(7,15)='EURW1S40',
   CLD3DF(8,15)='EURW1S40',
   CLD3DF(9,15)='EURW1S40',
   CLD3DF(10,15)='EURW1S40',
   CLD3DF(11,15)='EURW1S40',
   CLD3DF(12,15)='EURW1S40',
   CLD3DF(13,15)='EURW1S40',
   CLD3DF(14,15)='EURW1S40',
   CLD3DF(15,15)='EURW1S40',
   CLD3DF(16,15)='EURW1S40',
   CLD3DF(17,15)='EURW1S40',
   CLD3DF(18,15)='EURW1S40',
   CLD3DF(19,15)='EURW1S40',
   CLD3DF(20,15)='EURW1S40',
   CLD3DF(21,15)='EURW1S40',
   CLD3DF(22,15)='EURW1S40',
   CLD3DF(23,15)='EURW1S40',
   CLD3DF(24,15)='EURW1S40',
   CL3DF(16)='VERT.VELOCIT',
   IL3DF(1,16)=1,2,3,4,5,6,7,8,9,10,11,12,13,14,15,16,17,18,19,20,21,22,23,24,
   CLD3DF(1,16)='EURW1S40',
   CLD3DF(2,16)='EURW1S40',
   CLD3DF(3,16)='EURW1S40',
   CLD3DF(4,16)='EURW1S40',
   CLD3DF(5,16)='EURW1S40',
   CLD3DF(6,16)='EURW1S40',
   CLD3DF(7,16)='EURW1S40',
   CLD3DF(8,16)='EURW1S40',
   CLD3DF(9,16)='EURW1S40',
   CLD3DF(10,16)='EURW1S40',
   CLD3DF(11,16)='EURW1S40',
   CLD3DF(12,16)='EURW1S40',
   CLD3DF(13,16)='EURW1S40',
   CLD3DF(14,16)='EURW1S40',
   CLD3DF(15,16)='EURW1S40',
   CLD3DF(16,16)='EURW1S40',
   CLD3DF(17,16)='EURW1S40',
   CLD3DF(18,16)='EURW1S40',
   CLD3DF(19,16)='EURW1S40',
   CLD3DF(20,16)='EURW1S40',
   CLD3DF(21,16)='EURW1S40',
   CLD3DF(22,16)='EURW1S40',
   CLD3DF(23,16)='EURW1S40',
   CLD3DF(24,16)='EURW1S40',
   CL3DF(17)='DIVERGENCE',
   IL3DF(1,17)=9,23,
   CLD3DF(1,17)='EURW1S40',
   CLD3DF(2,17)='EURW1S40',
   CL3DF(18)='THETA_VIRTUA',
   IL3DF(1,18)=15,16,17,18,19,20,21,22,23,24,
   CLD3DF(1,18)='EURW1S40',
   CLD3DF(2,18)='EURW1S40',
   CLD3DF(3,18)='EURW1S40',
   CLD3DF(4,18)='EURW1S40',
   CLD3DF(5,18)='EURW1S40',
   CLD3DF(6,18)='EURW1S40',
   CLD3DF(7,18)='EURW1S40',
   CLD3DF(8,18)='EURW1S40',
   CLD3DF(9,18)='EURW1S40',
   CLD3DF(10,18)='EURW1S40',
   CL3DF(19)='TKE',
   IL3DF(1,19)=1,2,3,4,5,6,7,8,9,10,11,12,13,14,15,16,17,18,19,20,21,22,23,24,
   CLD3DF(1,19)='EURW1S40',
   CLD3DF(2,19)='EURW1S40',
   CLD3DF(3,19)='EURW1S40',
   CLD3DF(4,19)='EURW1S40',
   CLD3DF(5,19)='EURW1S40',
   CLD3DF(6,19)='EURW1S40',
   CLD3DF(7,19)='EURW1S40',
   CLD3DF(8,19)='EURW1S40',
   CLD3DF(9,19)='EURW1S40',
   CLD3DF(10,19)='EURW1S40',
   CLD3DF(11,19)='EURW1S40',
   CLD3DF(12,19)='EURW1S40',
   CLD3DF(13,19)='EURW1S40',
   CLD3DF(14,19)='EURW1S40',
   CLD3DF(15,19)='EURW1S40',
   CLD3DF(16,19)='EURW1S40',
   CLD3DF(17,19)='EURW1S40',
   CLD3DF(18,19)='EURW1S40',
   CLD3DF(19,19)='EURW1S40',
   CLD3DF(20,19)='EURW1S40',
   CLD3DF(21,19)='EURW1S40',
   CLD3DF(22,19)='EURW1S40',
   CLD3DF(23,19)='EURW1S40',
   CLD3DF(24,19)='EURW1S40',
   CL3DF(20)='CLOUD_FRACTI',
   IL3DF(1,20)=1,2,3,4,5,6,7,8,9,10,11,12,13,14,15,16,17,18,19,20,21,22,23,24,
   CLD3DF(1,20)='EURW1S40',
   CLD3DF(2,20)='EURW1S40',
   CLD3DF(3,20)='EURW1S40',
   CLD3DF(4,20)='EURW1S40',
   CLD3DF(5,20)='EURW1S40',
   CLD3DF(6,20)='EURW1S40',
   CLD3DF(7,20)='EURW1S40',
   CLD3DF(8,20)='EURW1S40',
   CLD3DF(9,20)='EURW1S40',
   CLD3DF(10,20)='EURW1S40',
   CLD3DF(11,20)='EURW1S40',
   CLD3DF(12,20)='EURW1S40',
   CLD3DF(13,20)='EURW1S40',
   CLD3DF(14,20)='EURW1S40',
   CLD3DF(15,20)='EURW1S40',
   CLD3DF(16,20)='EURW1S40',
   CLD3DF(17,20)='EURW1S40',
   CLD3DF(18,20)='EURW1S40',
   CLD3DF(19,20)='EURW1S40',
   CLD3DF(20,20)='EURW1S40',
   CLD3DF(21,20)='EURW1S40',
   CLD3DF(22,20)='EURW1S40',
   CLD3DF(23,20)='EURW1S40',
   CLD3DF(24,20)='EURW1S40',
   CL3DF(21)='EDR',
   IL3DF(1,21)=1,2,3,4,5,6,7,8,9,10,11,12,13,14,15,16,17,18,19,20,21,22,23,24,
   CLD3DF(1,21)='EURW1S40',
   CLD3DF(2,21)='EURW1S40',
   CLD3DF(3,21)='EURW1S40',
   CLD3DF(4,21)='EURW1S40',
   CLD3DF(5,21)='EURW1S40',
   CLD3DF(6,21)='EURW1S40',
   CLD3DF(7,21)='EURW1S40',
   CLD3DF(8,21)='EURW1S40',
   CLD3DF(9,21)='EURW1S40',
   CLD3DF(10,21)='EURW1S40',
   CLD3DF(11,21)='EURW1S40',
   CLD3DF(12,21)='EURW1S40',
   CLD3DF(13,21)='EURW1S40',
   CLD3DF(14,21)='EURW1S40',
   CLD3DF(15,21)='EURW1S40',
   CLD3DF(16,21)='EURW1S40',
   CLD3DF(17,21)='EURW1S40',
   CLD3DF(18,21)='EURW1S40',
   CLD3DF(19,21)='EURW1S40',
   CLD3DF(20,21)='EURW1S40',
   CLD3DF(21,21)='EURW1S40',
   CLD3DF(22,21)='EURW1S40',
   CLD3DF(23,21)='EURW1S40',
   CLD3DF(24,21)='EURW1S40',
   CL3DF(22)='REFLEC_DBZ',
   IL3DF(1,22)=5,7,9,10,11,12,13,14,15,16,17,18,19,20,21,22,
   CLD3DF(1,22)='EURW1S40',
   CLD3DF(2,22)='EURW1S40',
   CLD3DF(3,22)='EURW1S40',
   CLD3DF(4,22)='EURW1S40',
   CLD3DF(5,22)='EURW1S40',
   CLD3DF(6,22)='EURW1S40',
   CLD3DF(7,22)='EURW1S40',
   CLD3DF(8,22)='EURW1S40',
   CLD3DF(9,22)='EURW1S40',
   CLD3DF(10,22)='EURW1S40',
   CLD3DF(11,22)='EURW1S40',
   CLD3DF(12,22)='EURW1S40',
   CLD3DF(13,22)='EURW1S40',
   CLD3DF(14,22)='EURW1S40',
   CLD3DF(15,22)='EURW1S40',
   CLD3DF(16,22)='EURW1S40',
 /
 &NAMFPDYS
 /
 &NAMFPDYT
 /
 &NAMFPDYV
   CL3DF(1)='GEOPOTENTIEL',
   IL3DF(1,1)=1,2,
   CLD3DF(1,1)='EURW1S40',
   CLD3DF(2,1)='EURW1S40',
   CL3DF(2)='VENT_ZONAL',
   IL3DF(1,2)=1,2,
   CLD3DF(1,2)='EURW1S40',
   CLD3DF(2,2)='EURW1S40',
   CL3DF(3)='VENT_MERIDIEN',
   IL3DF(1,3)=1,2,
   CLD3DF(1,3)='EURW1S40',
   CLD3DF(2,3)='EURW1S40',
   CL3DF(4)='TEMPE_POTENT',
   IL3DF(1,4)=1,2,
   CLD3DF(1,4)='EURW1S40',
   CLD3DF(2,4)='EURW1S40',
   CL3DF(5)='ABS_VORTICITY',
   IL3DF(1,5)=1,2,
   CLD3DF(1,5)='EURW1S40',
   CLD3DF(2,5)='EURW1S40',
   CL3DF(6)='POT_VORTICIT',
   IL3DF(1,6)=1,2,
   CLD3DF(1,6)='EURW1S40',
   CLD3DF(2,6)='EURW1S40',
 /
 &NAMFPPHY
   CLPHY(1)='SURFTEMPERATURE',
   CLDPHY(1)='EURW1S40:EURW1S100',
   CLPHY(2)='SURFRESERV.NEIGE',
   CLDPHY(2)='EURW1S40:EURW1S100',
   CLXFU(1)='CLSTEMPERATURE',
   CLDXFU(1)='EURW1S40:EURW1S100',
   CLXFU(2)='CLSHUMI.RELATIVE',
   CLDXFU(2)='EURW1S40:EURW1S100',
   CLXFU(3)='CLSVENT.ZONAL',
   CLDXFU(3)='EURW1S40',
   CLXFU(4)='CLSVENT.MERIDIEN',
   CLDXFU(4)='EURW1S40',
   CLXFU(5)='SURFNEBUL.TOTALE',
   CLDXFU(5)='EURW1S40:EURW1S100',
   CLXFU(6)='SURFNEBUL.HAUTE',
   CLDXFU(6)='EURW1S40:EURW1S100',
   CLXFU(7)='SURFNEBUL.MOYENN',
   CLDXFU(7)='EURW1S40:EURW1S100',
   CLXFU(8)='SURFNEBUL.BASSE',